LTspice 24.0.12 for Windows
Circuit: * D:\Altium Projects\ECE295ProjectFiles\M0\LTspice\Draft1.asc
Start Time: Tue Feb 25 00:34:00 2025
solver = Alternate
Maximum thread count: 20
tnom = 27
temp = 27
method = modified trap
Limiting rise time of source v1 to 1.9984e-18
.OP point found by inspection.
Total elapsed time: 0.063 seconds.

