LTspice 24.0.12 for Windows
Circuit: * D:\Altium Projects\ECE295ProjectFiles\M0\LTspice\Draft2.asc
Start Time: Tue Feb 25 00:43:21 2025
solver = Alternate
Maximum thread count: 20
tnom = 27
temp = 27
method = modified trap
.OP point found by inspection.
Total elapsed time: 0.083 seconds.

