LTspice 24.0.12 for Windows
Circuit: * D:\Altium Projects\ECE295ProjectFiles\M0\LTspice\Draft3.asc
Start Time: Tue Feb 25 12:45:33 2025
solver = Alternate
Maximum thread count: 20
tnom = 27
temp = 27
method = modified trap
Direct Newton iteration for .op point succeeded.
Total elapsed time: 0.113 seconds.

