LTspice 24.0.12 for Windows
Circuit: * D:\Altium Projects\ECE295ProjectFiles\M0\LTspice\VReg.asc
Start Time: Wed Jan 29 17:38:15 2025
Warning: Multiple definitions of model "2scr375p" Type: BJT
Warning: Multiple definitions of model "bc857b" Type: BJT
Warning: Multiple definitions of model "bc847c" Type: BJT
Warning: Multiple definitions of model "bc847b" Type: BJT
solver = Normal
Maximum thread count: 20
tnom = 27
temp = 27
method = modified trap
Total elapsed time: 0.205 seconds.

